* -*- spice -*-
*
* http://www.onsemi.com/pub_link/Collateral/2N2222A.SP3.TXT
*
**************************************
*      Model Generated by MODPEX     *
*Copyright(c) Symmetry Design Systems*
*         All Rights Reserved        *
*    UNPUBLISHED LICENSED SOFTWARE   *
*   Contains Proprietary Information *
*      Which is The Property of      *
*     SYMMETRY OR ITS LICENSORS      *
*Commercial Use or Resale Restricted *
*   by Symmetry License Agreement    *
**************************************
* Model generated on Feb 28, 13
* MODEL FORMAT: SPICE3
.MODEL ZTX107-HI NPN IS =1.8E-14 ISE=5.0E-14 NF =.9955 NE =1.46 BF =700
+ BR =35.5 IKF=.14 IKR=.03 ISC=1.72E-13 NC =1.27 NR =1.005 RB =.56 RE =.6
+ RC =.25 VAF=80 VAR=12.5 CJE=13E-12 TF =.64E-9 CJC=4E-12 TR =50.72E-9
+ VJC=.54 MJC=.33